Circuit: * C:\users\sebastian\Desktop\FIUBA-2do Cuatrimestre\Dispositivos Semiconductores\TP3\TP3.asc

Error on line 2 : m1 0 vg 0 0 mynmos2 level=49 l=85u w=85u tox=16n nch=2e16 nsub=2e16 capmod=0
	 Unknown parameter "level"
Error on line 3 : m2 0 vg 0 0 mynmos1 mynmos2 level=49 l=85u w=85u tox=16n nch=2e16 nsub=2e16 capmod=2
	 Unknown parameter "mynmos2"
Error on line 1215 : .model mynmos2 nmos(level=49 + tox=16n +nch=2e16 +nsub=2e16 +capmod=09 vt = 0.7
	* Unrecognized parameter "vt" -- ignored
WARNING: Specified period is not longer than the sum of Trise, Tfall, and Ton for v1.  Increasing period to 2
Warning: Pd = 0 is less than W.
Warning: Ps = 0 is less than W.
Warning: Pd = 0 is less than W.
Warning: Ps = 0 is less than W.
Direct Newton iteration for .op point succeeded.

Date: Tue Nov 25 21:56:42 2025
Total elapsed time: 211.235 seconds.

tnom = 27
temp = 27
method = modified trap
totiter = 1000056
traniter = 1000052
tranpoints = 500027
accept = 500026
rejected = 1
matrix size = 2
fillins = 0
solver = Normal
Matrix Compiler1: 36 bytes object code size  0.1/0.1/[0.1]
Matrix Compiler2: 96 bytes object code size  0.1/0.1/[0.1]

