Circuit: * C:\users\sebastian\Desktop\FIUBA-2do Cuatrimestre\Dispositivos Semiconductores\TP3\TP3.asc

Error on line 2 : m1 0 vg 0 0 mynmos2 level=49 l=85u w=85u tox=16n nch=2e16 nsub=2e16 capmod=0
	 Unknown parameter "level"
Error on line 3 : m2 0 vg 0 0 mynmos1 mynmos2 level=49 l=85u w=85u tox=16n nch=2e16 nsub=2e16 capmod=2
	 Unknown parameter "mynmos2"
Warning: Pd = 0 is less than W.
Warning: Ps = 0 is less than W.
Warning: Pd = 0 is less than W.
Warning: Ps = 0 is less than W.
Direct Newton iteration for .op point succeeded.

Date: Sun Nov 16 11:58:44 2025
Total elapsed time: 2.320 seconds.

tnom = 27
temp = 27
method = modified trap
totiter = 297000
traniter = 296996
tranpoints = 148499
accept = 148499
rejected = 0
matrix size = 2
fillins = 0
solver = Normal
Matrix Compiler1:       2 opcodes  0.1/[0.1]/0.2
Matrix Compiler2:       9 opcodes  0.1/[0.1]/0.2

