Circuit: * C:\users\sebastian\Desktop\FIUBA-2do Cuatrimestre\Dispositivos Semiconductores\TP3\TP3.asc

Error on line 2 : m1 0 vg 0 0 mynmos2 level=49 l=85u w=85u tox=16n nch=2e16 nsub=2e16 capmod=0
	 Unable to find definition of model "l"
	
	*  Unknown parameter "tox"
	
	* Error:  No unlabeled parameter permitted for MOSFET's
Error on line 3 : m2 0 vg 0 0 mynmos1 mynmos2 level=49 l=85u w=85u tox=16n nch=2e16 nsub=2e16 capmod=2
	 Unable to find definition of model "49"
	
	*  Unknown parameter "tox"
Error on line 1215 : mynmos2 level=49 l=85u w=85u tox=16n nch=2e16 nsub=2e16 capmod=0
	 Unable to find definition of model "16n"
	
	*  Unknown parameter "nch"
Error on line 1216 : mynmos1 mynmos2 level=49 l=85u w=85u tox=16n nch=2e16 nsub=2e16 capmod=2
	 Unable to find definition of model "tox"
	
	*  Unknown parameter "nch"
	
	* Error:  No unlabeled parameter permitted for MOSFET's
WARNING: Node L is floating.
WARNING: Node 85U is floating.
WARNING: Node MYNMOS2 is floating.

WARNING: Less than two connections to node MYNMOS2.  This node is used by MYNMOS1.
Direct Newton iteration for .op point succeeded.

Date: Sat Nov 15 16:20:01 2025
Total elapsed time: 19.282 seconds.

tnom = 27
temp = 27
method = modified trap
totiter = 1000066
traniter = 1000052
tranpoints = 500027
accept = 500026
rejected = 1
matrix size = 7
fillins = 0
solver = Normal
Matrix Compiler1: 708 bytes object code size  0.4/0.3/[0.3]
Matrix Compiler2: off  [0.3]/0.3/0.3

