Circuit: * C:\users\sebastian\Desktop\FIUBA-2do Cuatrimestre\Dispositivos Semiconductores\TP3\TP3.asc

Error on line 2 : m1 0 vg 0 0 mynmos2 level=49 l=85u w=85u tox=16n nch=2e16 nsub=2e16 capmod=0
	 Unknown parameter "level"
Error on line 3 : m2 0 vg 0 0 mynmos1 mynmos2 level=49 l=85u w=85u tox=16n nch=2e16 nsub=2e16 capmod=2
	 Unknown parameter "mynmos2"
Warning: Pd = 0 is less than W.
Warning: Ps = 0 is less than W.
Warning: Pd = 0 is less than W.
Warning: Ps = 0 is less than W.
Direct Newton iteration for .op point succeeded.

Date: Sun Nov 16 12:28:35 2025
Total elapsed time: 7.802 seconds.

tnom = 27
temp = 27
method = modified trap
totiter = 1000056
traniter = 1000052
tranpoints = 500027
accept = 500026
rejected = 1
matrix size = 2
fillins = 0
solver = Normal
Matrix Compiler1: 36 bytes object code size  0.2/0.2/[0.2]
Matrix Compiler2: off  [0.2]/0.2/0.2

